STAAD SPACE
START JOB INFORMATION
ENGINEER DATE 04-Jun-2025
END JOB INFORMATION
INPUT WIDTH 79
UNIT METER KN
JOINT COORDINATES
1 0 0 0; 2 6 0 0; 3 12 0 0; 4 18 0 0; 5 0 0 6; 6 6 0 6;
7 12 0 6; 8 18 0 6; 9 0 0 12; 10 6 0 12; 11 12 0 12;
12 18 0 12; 13 0 0 18; 14 6 0 18; 15 12 0 18; 16 18 0 18;
17 0 3 0; 18 6 3 0; 19 12 3 0; 20 18 3 0; 21 0 3 6; 22 6 3 6;
23 12 3 6; 24 18 3 6; 25 0 3 12; 26 6 3 12; 27 12 3 12;
28 18 3 12; 29 0 3 18; 30 6 3 18; 31 12 3 18; 32 18 3 18;
33 0 6 0; 34 6 6 0; 35 12 6 0; 36 18 6 0; 37 0 6 6; 38 6 6 6;
39 12 6 6; 40 18 6 6; 41 0 6 12; 42 6 6 12; 43 12 6 12;
44 18 6 12; 45 0 6 18; 46 6 6 18; 47 12 6 18; 48 18 6 18;
49 0 9 0; 50 6 9 0; 51 12 9 0; 52 18 9 0; 53 0 9 6; 54 6 9 6;
55 12 9 6; 56 18 9 6; 57 0 9 12; 58 6 9 12; 59 12 9 12;
60 18 9 12; 61 0 9 18; 62 6 9 18; 63 12 9 18; 64 18 9 18;
65 0 12 0; 66 6 12 0; 67 12 12 0; 68 18 12 0; 69 0 12 6; 70 6 12 6;
71 12 12 6; 72 18 12 6; 73 0 12 12; 74 6 12 12; 75 12 12 12;
76 18 12 12; 77 0 12 18; 78 6 12 18; 79 12 12 18; 80 18 12 18;
MEMBER INCIDENCES
*Columns Ground Floor
1 1 17; 2 2 18; 3 3 19; 4 4 20; 5 5 21; 6 6 22; 7 7 23; 8 8 24;
9 9 25; 10 10 26; 11 11 27; 12 12 28; 13 13 29; 14 14 30;
15 15 31; 16 16 32;
*Columns First Floor
17 17 33; 18 18 34; 19 19 35; 20 20 36; 21 21 37; 22 22 38;
23 23 39; 24 24 40; 25 25 41; 26 26 42; 27 27 43; 28 28 44;
29 29 45; 30 30 46; 31 31 47; 32 32 48;
*Columns Second Floor
33 33 49; 34 34 50; 35 35 51; 36 36 52; 37 37 53; 38 38 54;
39 39 55; 40 40 56; 41 41 57; 42 42 58; 43 43 59; 44 44 60;
45 45 61; 46 46 62; 47 47 63; 48 48 64;
*Columns Third Floor
49 49 65; 50 50 66; 51 51 67; 52 52 68; 53 53 69; 54 54 70;
55 55 71; 56 56 72; 57 57 73; 58 58 74; 59 59 75; 60 60 76;
61 61 77; 62 62 78; 63 63 79; 64 64 80;
*Beams Ground Floor
65 17 18; 66 18 19; 67 19 20; 68 21 22; 69 22 23; 70 23 24;
71 25 26; 72 26 27; 73 27 28; 74 29 30; 75 30 31; 76 31 32;
77 17 21; 78 21 25; 79 25 29; 80 18 22; 81 22 26; 82 26 30;
83 19 23; 84 23 27; 85 27 31; 86 20 24; 87 24 28; 88 28 32;
*Beams First Floor
89 33 34; 90 34 35; 91 35 36; 92 37 38; 93 38 39; 94 39 40;
95 41 42; 96 42 43; 97 43 44; 98 45 46; 99 46 47; 100 47 48;
101 33 37; 102 37 41; 103 41 45; 104 34 38; 105 38 42; 106 42 46;
107 35 39; 108 39 43; 109 43 47; 110 36 40; 111 40 44; 112 44 48;
*Beams Second Floor
113 49 50; 114 50 51; 115 51 52; 116 53 54; 117 54 55; 118 55 56;
119 57 58; 120 58 59; 121 59 60; 122 61 62; 123 62 63; 124 63 64;
125 49 53; 126 53 57; 127 57 61; 128 50 54; 129 54 58; 130 58 62;
131 51 55; 132 55 59; 133 59 63; 134 52 56; 135 56 60; 136 60 64;
*Beams Third Floor
137 65 66; 138 66 67; 139 67 68; 140 69 70; 141 70 71; 142 71 72;
143 73 74; 144 74 75; 145 75 76; 146 77 78; 147 78 79; 148 79 80;
149 65 69; 150 69 73; 151 73 77; 152 66 70; 153 70 74; 154 74 78;
155 67 71; 156 71 75; 157 75 79; 158 68 72; 159 72 76; 160 76 80;
DEFINE MATERIAL START
ISOTROPIC CONCRETE
E 25e6
POISSON 0.2
DENSITY 25
ALPHA 1e-5
DAMP 0.05
TYPE CONCRETE
STRENGTH FCU 25e3
END DEFINE MATERIAL
MEMBER PROPERTY INDIAN
1 TO 64 PRIS YD 0.45 ZD 0.3
65 TO 76 PRIS YD 0.45 ZD 0.23
77 TO 88 PRIS YD 0.45 ZD 0.23
89 TO 100 PRIS YD 0.45 ZD 0.23
101 TO 112 PRIS YD 0.45 ZD 0.23
113 TO 124 PRIS YD 0.45 ZD 0.23
125 TO 136 PRIS YD 0.45 ZD 0.23
137 TO 148 PRIS YD 0.45 ZD 0.23
149 TO 160 PRIS YD 0.45 ZD 0.23
CONSTANTS
MATERIAL CONCRETE ALL
SUPPORTS
1 2 3 4 5 6 7 8 9 10 11 12 13 14 15 16 FIXED
DEFINE LOAD CASE 1
LOADTYPE DEAD
SELFWEIGHT Y -1
MEMBER LOAD
65 TO 160 UNI GY -12
FLOOR LOAD
17 18 19 20 21 22 23 24 25 26 27 28 29 30 31 32 PRESSURE GY -4.125
33 34 35 36 37 38 39 40 41 42 43 44 45 46 47 48 PRESSURE GY -4.125
49 50 51 52 53 54 55 56 57 58 59 60 61 62 63 64 PRESSURE GY -4.125
65 66 67 68 69 70 71 72 73 74 75 76 77 78 79 80 PRESSURE GY -4.125
DEFINE LOAD CASE 2
LOADTYPE LIVE
FLOOR LOAD
17 18 19 20 21 22 23 24 25 26 27 28 29 30 31 32 PRESSURE GY -2
33 34 35 36 37 38 39 40 41 42 43 44 45 46 47 48 PRESSURE GY -2
49 50 51 52 53 54 55 56 57 58 59 60 61 62 63 64 PRESSURE GY -2
65 66 67 68 69 70 71 72 73 74 75 76 77 78 79 80 PRESSURE GY -1.5
DEFINE LOAD CASE 3
LOADTYPE WIND
JOINT LOAD
17 33 49 65 FX 10
18 34 50 66 FX 10
19 35 51 67 FX 10
20 36 52 68 FX 10
21 37 53 69 FX 10
22 38 54 70 FX 10
23 39 55 71 FX 10
24 40 56 72 FX 10
25 41 57 73 FX 10
26 42 58 74 FX 10
27 43 59 75 FX 10
28 44 60 76 FX 10
29 45 61 77 FX 10
30 46 62 78 FX 10
31 47 63 79 FX 10
32 48 64 80 FX 10
DEFINE LOAD CASE 4
LOADTYPE SEISMIC
DEFINE 1.2D+1.2L+1.2WL COMBINATION LOAD CASE 5
1 1.2 2 1.2 3 1.2
DEFINE 1.2D+1.2L-1.2WL COMBINATION LOAD CASE 6
1 1.2 2 1.2 3 -1.2
DEFINE 1.5D+1.5L COMBINATION LOAD CASE 7
1 1.5 2 1.5
DEFINE 0.9D+1.5WL COMBINATION LOAD CASE 8
1 0.9 3 1.5
PERFORM ANALYSIS
PRINT ANALYSIS RESULTS
FINISH